results/td_hybrid_6node/congestion_summary.csv
variant,smax_line12,smax_head34,status,cost,dcost,Pg,Pg2,Pdg,P34,loading_line12,loading_head34,rank_ratio,max_cone_residual,max_cone_ratio,ac_best,ac_gap,admm_iters,admm_converged,admm_rel_cost_diff,admm_max_dpiP,minus_lambda_p,piP3_admm_x100,binding,binding_duals
baseline,2.0,1.0,OPTIMAL,7461.1052,0.0,1.8328719,0.0,0.0,0.30486269,0.56903642,0.33113524,1.0060791e-11,4.6654741e-10,0.00010418456,7461.1052,-3.983349e-10,57,true,7.6121503e-5,0.0025396287,6258.8038,6258.8038,,
paper_line12_band,1.137598,1.0,OPTIMAL,7472.8923,11.787091,1.8348252,0.0,0.0,0.30486712,1.0,0.33114259,0.00014461648,3.6143938e-9,0.00047379728,NaN,NaN,3000,false,0.0023606424,161.12736,7636.4078,7636.4078,"line (1,2) sending-end Smax; line (1,2) receiving-end Smax",7.44938e-06; 248.518
paper_head34_band,2.0,0.3311352,ALMOST_OPTIMAL,7461.1046,-0.00062337696,1.8328718,0.0,0.0,0.30486267,0.56903639,1.0000001,1.750368e-9,1.5739811e-8,0.0014097388,7461.1037,-1.1648086e-7,57,true,7.6056642e-5,131.79145,6258.8041,6258.8041,"feeder (3,4) sending-end Smax; feeder (3,4) Imax^2 (per pu^2); feeder (5,6) Imax^2 (per pu^2)",131.965; 0.000204987; 1.76218e-06
flex_baseline,2.0,1.0,OPTIMAL,7461.1051,-6.1348824e-5,1.8328719,4.8519737e-9,3.4055658e-9,0.30486269,0.56903642,0.33113524,3.6718791e-10,1.4533579e-8,0.0013017023,7461.1052,6.8623128e-9,57,true,7.6160818e-5,0.0027170666,6258.8048,6258.8048,,
flex_line12,1.0242656,1.0,OPTIMAL,7565.7044,104.59922,1.6733249,0.15574678,4.1911353e-9,0.30484577,1.0,0.33110722,4.0093019e-11,1.4066608e-9,0.00012600875,7565.7044,-7.0069207e-10,45,true,6.5109117e-5,0.0012076552,6562.3561,6562.3561,"line (1,2) receiving-end Smax",14.1496
flex_head34,2.0,0.29802172,OPTIMAL,7477.8852,16.779987,1.7962969,5.8985777e-10,0.03370581,0.26960082,0.56043508,1.0,5.5332024e-11,6.7920709e-10,0.00034631882,7477.8852,-1.2606251e-9,57,true,7.1439602e-5,0.0021916719,6168.0541,6168.0541,"feeder (3,4) sending-end Smax",6.09475
flex_both,1.0242656,0.29802172,OPTIMAL,7570.7259,109.62076,1.6609396,0.13218743,0.033687907,0.26960983,1.0,1.0,3.2364363e-12,1.6267902e-10,1.7912849e-5,7570.7259,-1.9690799e-9,46,true,6.5197277e-5,0.0011486745,6511.9344,6511.9344,"line (1,2) receiving-end Smax; feeder (3,4) sending-end Smax",13.8148; 2.2997
